Version 4
SHEET 1 880 680
WIRE 256 -160 240 -160
WIRE 304 -160 256 -160
WIRE 432 -160 384 -160
WIRE 240 -144 240 -160
WIRE 432 -144 432 -160
WIRE 80 -96 32 -96
WIRE 176 -96 160 -96
WIRE 32 -80 32 -96
WIRE 240 -32 240 -48
WIRE 32 16 32 0
WIRE 240 16 240 -32
WIRE 240 16 32 16
WIRE 432 16 432 -64
WIRE 432 16 240 16
WIRE 240 32 240 16
FLAG 240 32 0
FLAG 256 -160 E2
FLAG 176 -96 B2
FLAG 240 -32 C2
SYMBOL npn 176 -48 M180
SYMATTR InstName Q2
SYMATTR Value BC547B
SYMBOL voltage 432 -48 R180
WINDOW 123 0 0 Left 2
WINDOW 39 0 0 Left 2
SYMATTR InstName Vcc1
SYMATTR Value ""
SYMBOL voltage 32 -96 R0
WINDOW 123 0 0 Left 2
WINDOW 39 0 0 Left 2
WINDOW 0 -36 -18 Left 2
SYMATTR InstName Vbb1
SYMATTR Value ""
SYMBOL res 288 -144 R270
WINDOW 0 32 56 VTop 2
WINDOW 3 0 56 VBottom 2
SYMATTR InstName R3
SYMATTR Value 1k
SYMBOL res 64 -80 R270
WINDOW 0 32 56 VTop 2
WINDOW 3 0 56 VBottom 2
SYMATTR InstName R4
SYMATTR Value 1k
TEXT -392 -360 Left 2 ;NPN BJT- Common Collector configuration
TEXT 16 64 Left 2 !.dc Vcc1 0 10 0.005 Vbb1 0 2 0.5
TEXT 72 -240 Left 2 ;Output Characteristics
TEXT -376 -320 Left 2 ;Abhishek Revinipati\n2019A3PS0415H
