Version 4
SHEET 1 1580 1736
WIRE 400 112 320 112
WIRE 400 144 400 112
WIRE 64 176 64 160
WIRE 160 176 64 176
WIRE 64 208 64 176
WIRE 320 208 320 112
WIRE 400 240 400 224
WIRE 64 256 32 256
WIRE 352 256 320 256
WIRE 160 288 160 176
WIRE 160 288 112 288
WIRE 272 288 160 288
WIRE 32 336 32 256
WIRE 64 336 64 304
WIRE 64 336 32 336
WIRE 320 336 320 304
WIRE 352 336 352 256
WIRE 352 336 320 336
WIRE 64 352 64 336
WIRE 160 352 64 352
WIRE 64 384 64 352
WIRE 320 384 320 336
WIRE 64 432 32 432
WIRE 352 432 320 432
WIRE 160 464 160 352
WIRE 160 464 112 464
WIRE 272 464 160 464
WIRE 32 480 32 432
WIRE 64 480 32 480
WIRE 352 480 352 432
WIRE 352 480 320 480
WIRE 64 512 64 480
WIRE 320 512 320 480
FLAG 400 240 0
FLAG 64 512 0
FLAG 320 512 0
FLAG 64 80 0
SYMBOL current 64 80 R0
WINDOW 123 0 0 Left 2
WINDOW 39 0 0 Left 2
SYMATTR InstName I1
SYMATTR Value 50µ
SYMBOL nmos4 112 208 M0
SYMATTR InstName M1
SYMATTR Value2 l=15u w=75u
SYMBOL nmos4 272 208 R0
SYMATTR InstName M2
SYMATTR Value2 l=15u w=75u
SYMBOL voltage 400 128 R0
WINDOW 123 0 0 Left 2
WINDOW 39 0 0 Left 2
SYMATTR InstName V1
SYMATTR Value 1
SYMBOL nmos4 112 384 M0
SYMATTR InstName M3
SYMBOL nmos4 272 384 R0
SYMATTR InstName M4
TEXT 520 -680 Left 2 !.model NMOS NMOS\n+Level = 49\n \n+Lint = 4.e-08 Tox = 4.e-09 \n+Vth0 = 0.3999 Rdsw = 250 \n \n+lmin=1.8e-7 lmax=1.8e-7 wmin=1.8e-7 wmax=1.0e-4 Tref=27.0 version =3.1\n+Xj= 6.0000000E-08         Nch= 5.9500000E+17 \n+lln= 1.0000000            lwn= 1.0000000              wln= 0.00\n+wwn= 0.00                 ll= 0.00\n+lw= 0.00                  lwl= 0.00                   wint= 0.00\n+wl= 0.00                  ww= 0.00                    wwl= 0.00\n+Mobmod=  1                binunit= 2                  xl=  0\n+xw=  0                    binflag=  0\n+Dwg= 0.00                 Dwb= 0.00 \n \n+K1= 0.5613000               K2= 1.0000000E-02 \n+K3= 0.00                  Dvt0= 8.0000000             Dvt1= 0.7500000 \n+Dvt2= 8.0000000E-03       Dvt0w= 0.00                 Dvt1w= 0.00 \n+Dvt2w= 0.00               Nlx= 1.6500000E-07          W0= 0.00 \n+K3b= 0.00                 Ngate= 5.0000000E+20 \n \n+Vsat= 1.3800000E+05       Ua= -7.0000000E-10          Ub= 3.5000000E-18 \n+Uc= -5.2500000E-11        Prwb= 0.00 \n+Prwg= 0.00                Wr= 1.0000000               U0= 3.5000000E-02 \n+A0= 1.1000000             Keta= 4.0000000E-02         A1= 0.00 \n+A2= 1.0000000             Ags= -1.0000000E-02         B0= 0.00 \n+B1= 0.00 \n \n+Voff= -0.12350000          NFactor= 0.9000000          Cit= 0.00 \n+Cdsc= 0.00                Cdscb= 0.00                 Cdscd= 0.00 \n+Eta0= 0.2200000           Etab= 0.00                  Dsub= 0.8000000 \n \n+Pclm= 5.0000000E-02       Pdiblc1= 1.2000000E-02      Pdiblc2= 7.5000000E-03 \n+Pdiblcb= -1.3500000E-02   Drout= 1.7999999E-02        Pscbe1= 8.6600000E+08 \n+Pscbe2= 1.0000000E-20     Pvag= -0.2800000            Delta= 1.0000000E-02 \n+Alpha0= 0.00              Beta0= 30.0000000 \n \n+kt1= -0.3700000           kt2= -4.0000000E-02         At= 5.5000000E+04 \n+Ute= -1.4800000           Ua1= 9.5829000E-10          Ub1= -3.3473000E-19 \n+Uc1= 0.00                 Kt1l= 4.0000000E-09         Prt= 0.00 \n \n+Cj= 0.00365               Mj= 0.54                    Pb= 0.982\n+Cjsw= 7.9E-10             Mjsw= 0.31                  Php= 0.841\n+Cta= 0                    Ctp= 0                      Pta= 0\n+Ptp= 0                    JS=1.50E-08                 JSW=2.50E-13\n+N=1.0                     Xti=3.0                     Cgdo=2.786E-10\n+Cgso=2.786E-10            Cgbo=0.0E+00                Capmod= 2\n+NQSMOD= 0                 Elm= 5                      Xpart= 1\n+Cgsl= 1.6E-10             Cgdl= 1.6E-10               Ckappa= 2.886\n+Cf= 1.069e-10             Clc= 0.0000001              Cle= 0.6\n+Dlc= 4E-08                Dwc= 0                      Vfbcv= -1
TEXT -176 592 Left 2 !.dc V1 0 10 0.01
TEXT 16 -96 Left 2 ;NMOS Cascode Current Mirror
TEXT 8 -200 Left 2 ;Abhishek Revinipati
TEXT 8 -128 Left 2 ;2019A3PS0415H
